 ****** HSPICE -- G-2012.06-SP2 32-BIT (Nov 27 2012) RHEL32 ******              
  Copyright (C) 2012 Synopsys, Inc. All Rights Reserved.                        
  Unpublished-rights reserved under US copyright laws.
  This program is protected by law and is subject to the
  terms and conditions of the license agreement from Synopsys.
  Use of this program is your acceptance to be bound by the
  license agreement. HSPICE is the trademark of Synopsys, Inc.
  Input File: /users/start2016/r0364010/temp_m2s/Adder16b_BrentKung_Power650ps.s
  Command line options: -i /users/start2016/r0364010/temp_m2s/Adder16b_BrentKung_Power650ps.sp -o /users/start2016/r0364010/temp_m2s
 lic:  
 lic: FLEXlm: v10.9.8 
 lic: USER:   r0364010             HOSTNAME: pc-klas1-6.esat.kuleuven.be 
 lic: HOSTID:                      PID:      4049 
 lic: Using FLEXlm license file: 
 lic: 27020@saturn 
 lic: Checkout 1 hspice 
 lic: License/Maintenance for hspice will expire on 15-sep-2017/2016.06 
 lic: 1(in_use)/50(total) FLOATING license(s) on SERVER saturn 
 lic:   
 Init: read install configuration file: /esat/micas-data/software/hspice_2012.06/hspice/meta.cfg
 **error** (/users/start2016/r0364010/temp_m2s/Adder16b_BrentKung_Power650ps.sp:21)syntax error at or before "ˆŽd)œ)´)\*hould" "be" "0.93V" "for" "power@650ps" 

Syntax reference: 
Syntax
Simple parameter assignment:
.PARAM ParamName=RealNumber
Algebraic parameter assignments:
.PARAM ParamName='AlgebraicExpression'
.PARAM ParamName1=ParamName2
User-defined functions:
.PARAM ParamName(pv1[pv2])='Expression'
predefined analysis functions:
.PARAM FunctionName=Value
Optimized parameter assignment:
.PARAM parameter=OPTxxx (initial_guess, low_limit,
+ upper_limit)
.PARAM parameter=OPTxxx (initial_guess, low_limit,
+ upper_limit, delta)
.PARAM paramname=str('string')



               ***** job aborted
 lic: Release hspice token(s) 
 lic: total license checkout elapse time:        0.26(s)
