***** HSPICE -- G-2012.06-SP2 32-BIT (Nov 27 2012) RHEL32 ******
 Input File: /users/start2016/r0364010/temp_m2s/Adder16b_BrentKungModified2.sp
 lic:
 lic: FLEXlm: v10.9.8
 lic: USER:   r0364010             HOSTNAME: pc-klas3-8.esat.kuleuven.be
 lic: HOSTID:                      PID:      6399
 lic: Using FLEXlm license file:
 lic: 27020@saturn
 lic: Checkout 1 hspice
 lic: License/Maintenance for hspice will expire on 15-sep-2017/2016.06
 lic: 1(in_use)/50(total) FLOATING license(s) on SERVER saturn
 lic:
 init: begin read circuit files,  cpu clock=  4.00E-02
       option search = /esat/micas-data/software/hspice_2012.06/hspice/
                         parts/ad
       option search = /esat/micas-data/software/hspice_2012.06/hspice/
                         parts/ad
       option search = /esat/micas-data/software/hspice_2012.06/hspice/
                         parts/behave
       option search = /esat/micas-data/software/hspice_2012.06/hspice/
                         parts/bjt
       option search = /esat/micas-data/software/hspice_2012.06/hspice/
                         parts/burr_brn
       option search = /esat/micas-data/software/hspice_2012.06/hspice/
                         parts/comlinear
       option search = /esat/micas-data/software/hspice_2012.06/hspice/
                         parts/dio
       option search = /esat/micas-data/software/hspice_2012.06/hspice/
                         parts/fet
       option search = /esat/micas-data/software/hspice_2012.06/hspice/
                         parts/lin_tech
       option search = /esat/micas-data/software/hspice_2012.06/hspice/
                         parts/pci
       option search = /esat/micas-data/software/hspice_2012.06/hspice/
                         parts/signet
       option search = /esat/micas-data/software/hspice_2012.06/hspice/
                         parts/ti
       option search = /esat/micas-data/software/hspice_2012.06/hspice/
                         parts/tline
       option search = /esat/micas-data/software/hspice_2012.06/hspice/
                         parts/xilinx
       option runlvl
       option post
       option nomod
       option opts
       option fast
       option parhier = local
 init: end read circuit files,  cpu clock=  4.00E-02 peak memory=       105 mb
 init: begin check errors,  cpu clock=  4.00E-02
 init: end check errors,  cpu clock=  1.00E-01 peak memory=       112 mb
 init: begin setup matrix, pivot=     0 cpu clock=  1.00E-01
       establish matrix -- done,  cpu clock=  1.10E-01 peak memory=       113 mb
       re-order matrix -- done,  cpu clock=  2.60E-01 peak memory=       117 mb
 init: end setup matrix,  cpu clock=  2.60E-01 peak memory=       118 mb
 dcop: begin dcop,  cpu clock=  2.60E-01
 dcop: end dcop,  cpu clock=  6.20E-01 peak memory=       118 mb                tot_iter=     107
 output: /users/start2016/r0364010/temp_m2s/Adder16b_BrentKungModified2.tr0
 sweep: tran tran0    begin, stop_t=  1.60E-08 #sweeps=3201 cpu clock=  6.20E-01
 tran: time= 2.2108E-09 tot_iter=      16 conv_iter=       8 cpu clock= 6.50E-01
 tran: time= 3.8108E-09 tot_iter=      20 conv_iter=      10 cpu clock= 6.50E-01
 tran: time= 5.4108E-09 tot_iter=      24 conv_iter=      12 cpu clock= 6.50E-01
 tran: time= 7.0108E-09 tot_iter=      28 conv_iter=      14 cpu clock= 6.60E-01
 tran: time= 8.0500E-09 tot_iter=      32 conv_iter=      16 cpu clock= 6.60E-01
 tran: time= 9.8643E-09 tot_iter=     416 conv_iter=     131 cpu clock= 1.22E+00
 tran: time= 1.1300E-08 tot_iter=     422 conv_iter=     134 cpu clock= 1.22E+00
 tran: time= 1.2848E-08 tot_iter=     697 conv_iter=     213 cpu clock= 1.62E+00
 tran: time= 1.4414E-08 tot_iter=     709 conv_iter=     219 cpu clock= 1.63E+00
 tran: time= 1.6000E-08 tot_iter=     717 conv_iter=     223 cpu clock= 1.64E+00
 sweep: tran tran0    end,  cpu clock=  1.66E+00 peak memory=       119 mb
>info:         ***** hspice job concluded
 lic: Release hspice token(s)
