***** HSPICE -- G-2012.06-SP2 32-BIT (Nov 27 2012) RHEL32 ******
 Input File: /users/start2016/r0364010/temp_m2s/Adder16b_BrentKung_Speed511ps.sp
 lic:
 lic: FLEXlm: v10.9.8
 lic: USER:   r0364010             HOSTNAME: pc-klas1-14.esat.kuleuven.be
 lic: HOSTID:                      PID:      6314
 lic: Using FLEXlm license file:
 lic: 27020@saturn
 lic: Checkout 1 hspice
 lic: License/Maintenance for hspice will expire on 15-sep-2017/2016.06
 lic: 1(in_use)/50(total) FLOATING license(s) on SERVER saturn
 lic:
 init: begin read circuit files,  cpu clock=  4.00E-02
       option search = /esat/micas-data/software/hspice_2012.06/hspice/
                         parts/ad
       option search = /esat/micas-data/software/hspice_2012.06/hspice/
                         parts/ad
       option search = /esat/micas-data/software/hspice_2012.06/hspice/
                         parts/behave
       option search = /esat/micas-data/software/hspice_2012.06/hspice/
                         parts/bjt
       option search = /esat/micas-data/software/hspice_2012.06/hspice/
                         parts/burr_brn
       option search = /esat/micas-data/software/hspice_2012.06/hspice/
                         parts/comlinear
       option search = /esat/micas-data/software/hspice_2012.06/hspice/
                         parts/dio
       option search = /esat/micas-data/software/hspice_2012.06/hspice/
                         parts/fet
       option search = /esat/micas-data/software/hspice_2012.06/hspice/
                         parts/lin_tech
       option search = /esat/micas-data/software/hspice_2012.06/hspice/
                         parts/pci
       option search = /esat/micas-data/software/hspice_2012.06/hspice/
                         parts/signet
       option search = /esat/micas-data/software/hspice_2012.06/hspice/
                         parts/ti
       option search = /esat/micas-data/software/hspice_2012.06/hspice/
                         parts/tline
       option search = /esat/micas-data/software/hspice_2012.06/hspice/
                         parts/xilinx
       option runlvl
       option post
       option nomod
       option opts
       option fast
       option parhier = local
 init: end read circuit files,  cpu clock=  4.00E-02 peak memory=       105 mb
 init: begin check errors,  cpu clock=  4.00E-02
 init: end check errors,  cpu clock=  8.00E-02 peak memory=       110 mb
 init: begin setup matrix, pivot=     0 cpu clock=  8.00E-02
       establish matrix -- done,  cpu clock=  9.00E-02 peak memory=       111 mb
       re-order matrix -- done,  cpu clock=  2.90E-01 peak memory=       114 mb
 init: end setup matrix,  cpu clock=  2.90E-01 peak memory=       115 mb
 dcop: begin dcop,  cpu clock=  2.90E-01
 dcop: end dcop,  cpu clock=  5.40E-01 peak memory=       115 mb                tot_iter=      97
 output: /users/start2016/r0364010/temp_m2s/Adder16b_BrentKung_Speed511ps.tr0
 sweep: tran tran0    begin, stop_t=  3.60E-08 #sweeps=7201 cpu clock=  5.50E-01
 tran: time= 3.7529E-09 tot_iter=      16 conv_iter=       8 cpu clock= 5.60E-01
 tran: time= 7.3529E-09 tot_iter=      20 conv_iter=      10 cpu clock= 5.70E-01
 tran: time= 1.0965E-08 tot_iter=     307 conv_iter=     103 cpu clock= 9.60E-01
 tran: time= 1.5150E-08 tot_iter=     551 conv_iter=     182 cpu clock= 1.26E+00
 tran: time= 1.8076E-08 tot_iter=     826 conv_iter=     270 cpu clock= 1.61E+00
 tran: time= 2.1607E-08 tot_iter=    1075 conv_iter=     351 cpu clock= 1.92E+00
 tran: time= 2.5328E-08 tot_iter=    1337 conv_iter=     436 cpu clock= 2.24E+00
 tran: time= 2.8804E-08 tot_iter=    1570 conv_iter=     509 cpu clock= 2.53E+00
 tran: time= 3.2401E-08 tot_iter=    1754 conv_iter=     569 cpu clock= 2.76E+00
 tran: time= 3.6000E-08 tot_iter=    1892 conv_iter=     615 cpu clock= 2.91E+00
 sweep: tran tran0    end,  cpu clock=  2.93E+00 peak memory=       116 mb
>info:         ***** hspice job concluded
 lic: Release hspice token(s)
