***** HSPICE -- G-2012.06-SP2 32-BIT (Nov 27 2012) RHEL32 ******
 Input File: /users/start2016/r0364010/temp_m2s/bufferChain.sp
 lic:
 lic: FLEXlm: v10.9.8
 lic: USER:   r0364010             HOSTNAME: pc-klas1-16.esat.kuleuven.be
 lic: HOSTID:                      PID:      14892
 lic: Using FLEXlm license file:
 lic: 27020@saturn
 lic: Checkout 1 hspice
 lic: License/Maintenance for hspice will expire on 15-sep-2017/2016.06
 lic: 1(in_use)/50(total) FLOATING license(s) on SERVER saturn
 lic:
 init: begin read circuit files,  cpu clock=  2.00E-02
       option search = /esat/micas-data/software/hspice_2012.06/hspice/
                         parts/ad
       option search = /esat/micas-data/software/hspice_2012.06/hspice/
                         parts/ad
       option search = /esat/micas-data/software/hspice_2012.06/hspice/
                         parts/behave
       option search = /esat/micas-data/software/hspice_2012.06/hspice/
                         parts/bjt
       option search = /esat/micas-data/software/hspice_2012.06/hspice/
                         parts/burr_brn
       option search = /esat/micas-data/software/hspice_2012.06/hspice/
                         parts/comlinear
       option search = /esat/micas-data/software/hspice_2012.06/hspice/
                         parts/dio
       option search = /esat/micas-data/software/hspice_2012.06/hspice/
                         parts/fet
       option search = /esat/micas-data/software/hspice_2012.06/hspice/
                         parts/lin_tech
       option search = /esat/micas-data/software/hspice_2012.06/hspice/
                         parts/pci
       option search = /esat/micas-data/software/hspice_2012.06/hspice/
                         parts/signet
       option search = /esat/micas-data/software/hspice_2012.06/hspice/
                         parts/ti
       option search = /esat/micas-data/software/hspice_2012.06/hspice/
                         parts/tline
       option search = /esat/micas-data/software/hspice_2012.06/hspice/
                         parts/xilinx
       option runlvl
       option post
       option nomod
       option opts
       option fast
       option parhier = local
 init: end read circuit files,  cpu clock=  2.00E-02 peak memory=       105 mb
 init: begin check errors,  cpu clock=  2.00E-02
 init: end check errors,  cpu clock=  3.00E-02 peak memory=       105 mb
 init: begin setup matrix, pivot=     0 cpu clock=  3.00E-02
       establish matrix -- done,  cpu clock=  3.00E-02 peak memory=       105 mb
       re-order matrix -- done,  cpu clock=  3.00E-02 peak memory=       105 mb
 init: end setup matrix,  cpu clock=  3.00E-02 peak memory=       106 mb
 dcop: begin dcop,  cpu clock=  3.00E-02
 dcop: end dcop,  cpu clock=  3.00E-02 peak memory=       106 mb                tot_iter=      10
 output: /users/start2016/r0364010/temp_m2s/bufferChain.tr0
 sweep: tran tran0    begin, stop_t=  1.00E-08 #sweeps=**** cpu clock=  3.00E-02
 tran: time= 1.4886E-09 tot_iter=      16 conv_iter=       8 cpu clock= 3.00E-02
 tran: time= 2.0000E-09 tot_iter=      18 conv_iter=       9 cpu clock= 3.00E-02
 tran: time= 3.4158E-09 tot_iter=     111 conv_iter=      45 cpu clock= 3.00E-02
 tran: time= 4.0000E-09 tot_iter=     115 conv_iter=      47 cpu clock= 3.00E-02
 tran: time= 5.1993E-09 tot_iter=     207 conv_iter=      83 cpu clock= 4.00E-02
 tran: time= 6.0000E-09 tot_iter=     213 conv_iter=      86 cpu clock= 4.00E-02
 tran: time= 7.4054E-09 tot_iter=     305 conv_iter=     121 cpu clock= 4.00E-02
 tran: time= 8.0000E-09 tot_iter=     309 conv_iter=     123 cpu clock= 4.00E-02
 tran: time= 9.2174E-09 tot_iter=     400 conv_iter=     159 cpu clock= 5.00E-02
 tran: time= 1.0000E-08 tot_iter=     406 conv_iter=     162 cpu clock= 5.00E-02
 sweep: tran tran0    end,  cpu clock=  5.00E-02 peak memory=       107 mb
>info:         ***** hspice job concluded
 lic: Release hspice token(s)
