 ****** HSPICE -- K-2015.06-SP1 linux64 (Aug 23 2015) ******                    
  Copyright (c) 1986 - 2016 by Synopsys, Inc. All Rights Reserved.              
  This software and the associated documentation are proprietary
  to Synopsys, Inc. This software may only be used in accordance
  with the terms and conditions of a written license agreement with
  Synopsys, Inc. All other use, reproduction, or distribution of
  this software is strictly prohibited.
  Input File: /users/start2016/r0364010/temp_m2s/nand.sp                        
  Command line options: /esat/micas-data/software/hspice_2015.06/hspice/linux64/hspice -i /users/start2016/r0364010/temp_m2s/nand.sp -o /users/start2016/r0364010/temp_m2s
 lic:  
 lic: FLEXlm: v11.2.1 
 lic: USER:   r0364010             HOSTNAME: pc-klas3-8.esat.kuleuven.be 
 lic: HOSTID: d4bed9e4cbef         PID:      9959 
 lic: Using FLEXlm license file: 
 lic: 27020@saturn 
 lic: Checkout 1 hspice 
 lic: License/Maintenance for hspice will expire on 15-sep-2017/2016.06 
 lic: 2(in_use)/50(total) FLOATING license(s) on SERVER 27020@saturn 
 lic:   
 Init: read install configuration file: /esat/micas-data/software/hspice_2015.06/hspice/meta.cfg
  **warning** (/users/start2016/r0364010/temp_m2s/nand.sp:19) Syntax error for output type v, the left parenthese is expected. This output is ignored.
1****** HSPICE -- K-2015.06-SP1 linux64 (Aug 23 2015) ******                    
 ******  
 **********************************

 ****** circuit name directory
 circuit number to circuit name directory
   number circuitname                     definition         multiplier
        0 main circuit
        1 xnand1.                         mynand             1.00 
        2 xnand1.xmn1.                    mosn               1.00 
        3 xnand1.xmn2.                    mosn               1.00 
        4 xnand1.xmp1.                    mosp               1.00 
        5 xnand1.xmp2.                    mosp               1.00 
  **warning** (nmos:m1 (/users/start2016/r0364010/Master2/DDIS/DDIS1/Resources/Technology/tech_wrapper.lib:8)) Warning:  Acde = 0.280299 may be too small in BSIM4 model with w=1.8e-07 l=4.5e-08.
  
      
 *****************************************************************
 ******  option summary
 ******
 absh    = 0         absin   = 0         absmos  = 1.00000u  abstol  = 1.00000n  
 absvar  = 500.000m  absvdc  = 50.0000u  accurate= 0         acout   = 0         
 add_variation= 0         altcc   = 0         altchk  = 0         appendall= 0         
 artist  = 0         aspec   = 0         auto_inc_off= 0         autost  = 0         
 ba_activehier= 0         ba_coupling= 0         ba_error= 0         ba_geoshrink= 1.00000   
 ba_mergeport= 0         ba_netfmt= 0         ba_print= ideal     ba_scale= 1.00000   
 badchr  = 0         bdfatolset= 1.00000m  bdfrtol = 1.00000m  biasfmt = 0         
 biasinte= 3         biasnode= 0         biaspara= 0         biawarn = 0         
 binprnt = 0         bkpsiz  = 50000     blkbytol= 10.0000u  block_name= 1         
 bsim4pds= 0         bypass  = 2.00000   bytol   = 100.000u  captab  = 1         
 cflflag = 0         chgtol  = 1.00000f  cmi00opt= -1.23457e-29 cmi01opt= -1.23457e-29 
 cmi02opt= -1.23457e-29 cmi03opt= -1.23457e-29 cmi04opt= -1.23457e-29 cmi05opt= -1.23457e-29 
 cmi06opt= -1.23457e-29 cmi07opt= -1.23457e-29 cmi08opt= -1.23457e-29 cmi09opt= -1.23457e-29 
 cmiflag = 0         cmimcflag= 0         cmivth  = 0         co      = 78        
 cptime  = 10.0000x  cscal   = 1.00000t  csdf    = 0         cshdc   = 1.00000p  
 cshunt  = 0         custcmi = 0         cvtol   = 200.000m  dcap    = 2         
 dccap   = 0         dcfor   = 0         dchold  = 1         dcic    = 1         
 dcon    = 0         dcstep  = 0         dctran  = 0         defad   = 0         
 defas   = 0         defl    = 100.000u  defnrd  = 0         defnrs  = 0         
 defpd   = 0         defps   = 0         defsa   = 0         defsb   = 0         
 defsd   = 0         defw    = 100.000u  degf    = 100.000m  degfn   = 100.000m  
 degfp   = 100.000m  delmax  = 0         di      = 100.000   diagno  = 0         
 dlencsdf= 5         do_not_vary= 0         dumpcfl = 0         dv      = 1.00000k  
 dvdt    = 3         dvtr    = 1.00000k  dynacc  = 0         em_recovery= 1.00000   
 epsmin  = 1e-28     etmiagechk= 1         etmif_sharemod= 1         expli   = 0         
 expmax  = 80.0000   ext_op  = 0         extend_bisection_window= 0         external_file= 0         
 extmodparchk= 0         fast    = 1         fft_accu= -1        fftout  = 0         
 fmax    = 1.00000t  fs      = 250.000m  fscal   = 1.00000n  ft      = 250.000m  
 g_clamp = 1         gdcpath = 1.00000p  gen_cur_pol= 0         genk    = 1         
 geocheck= 0         geoshrink= 1.00000   gmax    = 100.000   gmin    = 1.00000p  
 gmindc  = 1.00000p  gramp   = 0         gscal   = 1.00000k  gshdc   = 0         
 gshunt  = 0         h9007   = 0         hier_delim= 0         hier_sca= 0         
 histogram_bins= 1         hpp_block_bypass= 1         ic_accurate= 0         icsweep = 1         
 ignore_variation= 0         ingold  = 0         interp  = 0         intervals= 1         
 iprop   = 0         itl1    = 200       itl2    = 50        itl3    = 3         
 itl4    = 8         itl5    = 0         itlptran= 30        itlpz   = 100       
 itrprt  = 0         ivdmargin= 0         ivth    = 0         ivth_model= 0         
 ivthn   = 0         ivthp   = 0         kcltes  = 0         klim    = 10.0000m  
 la_freq = 1.00000g  la_maxr = 1.00000y  la_minc = 100.000a  la_time = 1.00000n  
 la_tol  = 50.0000m  large_scale_mc= 0         lennam  = 8         limtim  = 2         
 lis_new = 0         lislvl  = 0         list    = 0         lscal   = 1.00000x  
 lvltim  = 4         macmod  = 0         maxamp  = 0         maxord  = 2         
 maxwarns= 5         mbypas  = 2.00000   mc_file_only= 0         mcbrief = 0         
 measdg  = 4         measfail= 1         measfile= 0         measform= 0         
 measou  = 1         measure_file= 0         method  = 1         min_ver_abort= 0         
 minval  = 1.00000p  mirror_component= 0         mixed_num_format= 0         modmon  = 0         
 modparchk= 1         modprt  = 0         modsrh  = 1         module_def_rule= 0         
 montecon= 1         mraapi  = 0         mradtempba= 1         mraext  = 0         
 mrapaged= 0         mt_check= 0         mtthresh= 0         mu      = 500.000m  
 mult_less_1= 0         ncfilter= -1.00000p ncwarn  = 0         newtol  = 0         
 node    = 0         noelck  = 0         noisem  = 10.0000u  noisum  = 0         
 nomod   = 1         nopiv   = 0         notop   = 0         nowarn  = 0         
 numdgt  = 4         nxx     = 0         off     = 0         off_output= 0         
 opfile  = 0         optcon  = 0         optlst  = 0         optparhier= global    
 opts    = 1         other_percentile= 0         output_sigma_value= 1         parhier = local     
 parse_module_netlist= 0         pathnu  = 0         pcb_scale_format= 0         phd     = 0         
 pivot   = 0         pivtol  = 1.00000f  plim    = 0         post    = binary    
 post_ver= 9601      postlvl = 0         posttop = 0         probe   = 0         
 psf     = 0         puretp  = 0         putmeas = 1         pz_method= muller    
 pz_num  = 10        pzabs   = 10.0000m  pztol   = 1.00000u  qqnorm_file= 1         
 radegoutput= 0         randgen = 0         random_generator= 0         redefmodel= 0         
 redefsub= 0         relh    = 50.0000m  reli    = 10.0000m  relin   = 1.00000m  
 relmos  = 50.0000m  relq    = 10.0000m  reltol  = 1.00000m  relvar  = 300.000m  
 relvdc  = 1.00000m  replicates= 1         res_bits= 0         resmin  = 10.0000u  
 risetime= 1.00000p  ritol   = 1.00000u  rm_rmin = 10.0000u  rmax    = 5.00000   
 rmin    = 1.00000n  runlvl  = 3         sampling_method= 1         scale   = 1.00000   
 scalm   = 1.00000   sda     = 0         seed    = 1         sensitivity_analysis= 1         
 set_missing_values= 1         shrink  = 1.00000   si_scale_symbols= 0         sim_la  = 0         
 slopetol= 500.000m  soiq0   = 0         spice   = 0         split_dp= 0         
 splitma = 0         spmodel = 0         sstamp  = 0         statfl  = 0         
 stream  = 1         strict_check= 0         sx_factor= 1.00000   symb    = 0         
 tail_samples= 1         timeres = 1.00000p  tmevthmod= 0         tmiage  = 0         
 tmiba   = 0         tmiflag = 0         tmisave = 0         tmplt_pol= 0         
 tnom    = 25.0000   trcon   = 1         trtol   = 7.00000   unwrap  = 0         
 use_agauss_format= 0         use_temp= 0         va_bypass= -1        vamodel = 0         
 vary_only= 0         vcd     = 0         vecbus  = 0         ver_control= 0         
 vfloor  = 500.000n  vntol   = 50.0000u  wacc    = -1.00000  warn    = 1         
 warn_sep= 0         warnli  = 1         wave_pop= 100.000m  wdelayopt= 0         
 wdf     = 0         wdf_op  = 1         wincludegdimag= no        wl      = 0         
 wnflag  = 1         x0i     = 0         x0r     = -123.456k x1i     = 0         
 x1r     = -1.23456x x2i     = 0         x2r     = 1.23456x  xdtemp  = 0         
 xmult_in_expr= 0         zuken   = 0         
 biasfile =                 
 cmipath = 
 tmipath = 
 tmiinput = 
 etmiusrinput = 
 mra00path = 
 mra01path = 
 mra02path = 
 mra03path = 
 radegfile = 
 tmisort = 
 d_ibis = 
 search = 
  
 search = /users/start2016/r0364010/temp_m2s
  
 search = /esat/micas-data/software/hspice_2015.06/hspice/parts/ad
  
 search = /esat/micas-data/software/hspice_2015.06/hspice/parts/ad
  
 search = /esat/micas-data/software/hspice_2015.06/hspice/parts/behave
  
 search = /esat/micas-data/software/hspice_2015.06/hspice/parts/bjt
  
 search = /esat/micas-data/software/hspice_2015.06/hspice/parts/burr_brn
  
 search = /esat/micas-data/software/hspice_2015.06/hspice/parts/comlinear
  
 search = /esat/micas-data/software/hspice_2015.06/hspice/parts/dio
  
 search = /esat/micas-data/software/hspice_2015.06/hspice/parts/fet
  
 search = /esat/micas-data/software/hspice_2015.06/hspice/parts/lin_tech
  
 search = /esat/micas-data/software/hspice_2015.06/hspice/parts/pci
  
 search = /esat/micas-data/software/hspice_2015.06/hspice/parts/signet
  
 search = /esat/micas-data/software/hspice_2015.06/hspice/parts/ti
  
 search = /esat/micas-data/software/hspice_2015.06/hspice/parts/tline
  
 search = /esat/micas-data/software/hspice_2015.06/hspice/parts/xilinx
  
 search = /esat/micas-data/software/hspice_2015.06/hspice/parts
  
  Opening plot unit= 15
 file=/users/start2016/r0364010/temp_m2s/nand.pa0

 **info** dc convergence successful at Newton-Raphson method 
1****** HSPICE -- K-2015.06-SP1 linux64 (Aug 23 2015) ******                    
 ******  
 **********************************

 ****** operating point information tnom=  25.000 temp=  25.000 ******
 ****** operating point status is voltage   simulation time is     0.     
    node    =voltage      node    =voltage      node    =voltage

 +0:in1     =   0.      0:in2     =   0.      0:out     = 700.0000m
 +0:vdd     = 700.0000m 0:vss     =   0.      1:dn1     =  35.3915m


 maximum nodal capacitance=   1.074E-14         on node     0:vss             

    nodal  capacitance table 

    node    =    cap      node    =    cap      node    =    cap

 +0:in1     = 355.4008a 0:in2     = 332.5650a 0:out     =  10.4380f
 +0:vdd     = 697.3427a 0:vss     =  10.7416f 1:dn1     = 361.7644a

 

          ***** job concluded
1****** HSPICE -- K-2015.06-SP1 linux64 (Aug 23 2015) ******                    
 ******  
 **********************************

 ****** job statistics summary tnom=  25.000 temp=  25.000 ******
  
  
 ******  Machine Information  ******
 CPU:
 model name	: Intel(R) Core(TM) i5-3450 CPU @ 3.10GHz
 cpu MHz	: 3409.031
  
 OS:
 Linux version 3.10.0-327.36.1.el7.x86_64 (builder@kbuilder.dev.centos.org) (gcc version 4.8.5 20150623 (Red Hat 4.8.5-4) (GCC) ) #1 SMP Sun Sep 18 13:04:29 UTC 2016


  ******  HSPICE Threads Information  ******

  Command Line Threads Count :     1
  Available CPU Count        :     4
  Actual Threads Count       :     1


  ******  Circuit Statistics  ******
  # nodes       =      23 # elements   =      10
  # resistors   =       0 # capacitors =       1 # inductors   =       0
  # mutual_inds =       0 # vccs       =       0 # vcvs        =       0
  # cccs        =       0 # ccvs       =       0 # volt_srcs   =       2
  # curr_srcs   =       0 # diodes     =       0 # bjts        =       0
  # jfets       =       0 # mosfets    =       4 # U elements  =       0
  # T elements  =       0 # W elements =       0 # B elements  =       0
  # S elements  =       0 # P elements =       0 # va device   =       0
  # vector_srcs =       3 # N elements =       0


  ******  Runtime Statistics (seconds)  ******

  analysis           time    # points   tot. iter  conv.iter
  op point           0.02           1          15
  transient          0.02       10001         486         189 rev=        24
  readin             0.01
  errchk             0.04
  setup              0.02
  output             0.00


           peak memory used        221.54 megabytes
           total cpu time            0.10 seconds
           total elapsed time        0.22 seconds
           job started at     11:28:23 10/11/2016
           job ended   at     11:28:23 10/11/2016


 lic: Release hspice token(s) 
 lic: total license checkout elapse time:        0.12(s)
