***** HSPICE -- G-2012.06-SP2 32-BIT (Nov 27 2012) RHEL32 ******
 Input File: /users/start2016/r0364010/temp_m2s/simpleInverter.sp
 lic:
 lic: FLEXlm: v10.9.8
 lic: USER:   r0364010             HOSTNAME: pc-klas1-16.esat.kuleuven.be
 lic: HOSTID:                      PID:      10900
 lic: Using FLEXlm license file:
 lic: 27020@saturn
 lic: Checkout 1 hspice
 lic: License/Maintenance for hspice will expire on 15-sep-2017/2016.06
 lic: 1(in_use)/50(total) FLOATING license(s) on SERVER saturn
 lic:
 init: begin read circuit files,  cpu clock=  2.00E-02
       option search = /esat/micas-data/software/hspice_2012.06/hspice/
                         parts/ad
       option search = /esat/micas-data/software/hspice_2012.06/hspice/
                         parts/ad
       option search = /esat/micas-data/software/hspice_2012.06/hspice/
                         parts/behave
       option search = /esat/micas-data/software/hspice_2012.06/hspice/
                         parts/bjt
       option search = /esat/micas-data/software/hspice_2012.06/hspice/
                         parts/burr_brn
       option search = /esat/micas-data/software/hspice_2012.06/hspice/
                         parts/comlinear
       option search = /esat/micas-data/software/hspice_2012.06/hspice/
                         parts/dio
       option search = /esat/micas-data/software/hspice_2012.06/hspice/
                         parts/fet
       option search = /esat/micas-data/software/hspice_2012.06/hspice/
                         parts/lin_tech
       option search = /esat/micas-data/software/hspice_2012.06/hspice/
                         parts/pci
       option search = /esat/micas-data/software/hspice_2012.06/hspice/
                         parts/signet
       option search = /esat/micas-data/software/hspice_2012.06/hspice/
                         parts/ti
       option search = /esat/micas-data/software/hspice_2012.06/hspice/
                         parts/tline
       option search = /esat/micas-data/software/hspice_2012.06/hspice/
                         parts/xilinx
       option runlvl
       option post
       option nomod
       option opts
       option fast
       option parhier = local
       option captab
 init: end read circuit files,  cpu clock=  3.00E-02 peak memory=       105 mb
 init: begin check errors,  cpu clock=  3.00E-02
 init: end check errors,  cpu clock=  3.00E-02 peak memory=       105 mb
 init: begin setup matrix, pivot=     0 cpu clock=  3.00E-02
       establish matrix -- done,  cpu clock=  3.00E-02 peak memory=       105 mb
       re-order matrix -- done,  cpu clock=  3.00E-02 peak memory=       105 mb
 init: end setup matrix,  cpu clock=  3.00E-02 peak memory=       105 mb
 dcop: begin dcop,  cpu clock=  3.00E-02
 dcop: end dcop,  cpu clock=  3.00E-02 peak memory=       105 mb                tot_iter=       8
 output: /users/start2016/r0364010/temp_m2s/simpleInverter.tr0
 sweep: tran tran0    begin, stop_t=  5.00E-09 #sweeps=5001 cpu clock=  3.00E-02
 tran: time= 5.1768E-10 tot_iter=      73 conv_iter=      28 cpu clock= 3.00E-02
 tran: time= 1.0210E-09 tot_iter=      85 conv_iter=      34 cpu clock= 4.00E-02
 tran: time= 1.5348E-09 tot_iter=     151 conv_iter=      60 cpu clock= 4.00E-02
 tran: time= 2.0010E-09 tot_iter=     162 conv_iter=      65 cpu clock= 4.00E-02
 tran: time= 2.5404E-09 tot_iter=     227 conv_iter=      90 cpu clock= 4.00E-02
 tran: time= 3.0210E-09 tot_iter=     237 conv_iter=      95 cpu clock= 4.00E-02
 tran: time= 3.5374E-09 tot_iter=     303 conv_iter=     121 cpu clock= 4.00E-02
 tran: time= 4.0010E-09 tot_iter=     314 conv_iter=     126 cpu clock= 4.00E-02
 tran: time= 4.5344E-09 tot_iter=     380 conv_iter=     151 cpu clock= 4.00E-02
 tran: time= 5.0000E-09 tot_iter=     390 conv_iter=     156 cpu clock= 4.00E-02
 sweep: tran tran0    end,  cpu clock=  4.00E-02 peak memory=       106 mb
>info:         ***** hspice job concluded
 lic: Release hspice token(s)
