***** HSPICE -- G-2012.06-SP2 32-BIT (Nov 27 2012) RHEL32 ******
 Input File: /users/start2016/r0364010/temp_m2s/xorr.sp
 lic:
 lic: FLEXlm: v10.9.8
 lic: USER:   r0364010             HOSTNAME: pc-klas1-16.esat.kuleuven.be
 lic: HOSTID:                      PID:      5245
 lic: Using FLEXlm license file:
 lic: 27020@saturn
 lic: Checkout 1 hspice
 lic: License/Maintenance for hspice will expire on 15-sep-2017/2016.06
 lic: 1(in_use)/50(total) FLOATING license(s) on SERVER saturn
 lic:
 init: begin read circuit files,  cpu clock=  3.00E-02
       option search = /esat/micas-data/software/hspice_2012.06/hspice/
                         parts/ad
       option search = /esat/micas-data/software/hspice_2012.06/hspice/
                         parts/ad
       option search = /esat/micas-data/software/hspice_2012.06/hspice/
                         parts/behave
       option search = /esat/micas-data/software/hspice_2012.06/hspice/
                         parts/bjt
       option search = /esat/micas-data/software/hspice_2012.06/hspice/
                         parts/burr_brn
       option search = /esat/micas-data/software/hspice_2012.06/hspice/
                         parts/comlinear
       option search = /esat/micas-data/software/hspice_2012.06/hspice/
                         parts/dio
       option search = /esat/micas-data/software/hspice_2012.06/hspice/
                         parts/fet
       option search = /esat/micas-data/software/hspice_2012.06/hspice/
                         parts/lin_tech
       option search = /esat/micas-data/software/hspice_2012.06/hspice/
                         parts/pci
       option search = /esat/micas-data/software/hspice_2012.06/hspice/
                         parts/signet
       option search = /esat/micas-data/software/hspice_2012.06/hspice/
                         parts/ti
       option search = /esat/micas-data/software/hspice_2012.06/hspice/
                         parts/tline
       option search = /esat/micas-data/software/hspice_2012.06/hspice/
                         parts/xilinx
       option runlvl
       option post
       option nomod
       option opts
       option fast
       option parhier = local
       option captab
 init: end read circuit files,  cpu clock=  3.00E-02 peak memory=       105 mb
 init: begin check errors,  cpu clock=  3.00E-02
 init: end check errors,  cpu clock=  3.00E-02 peak memory=       105 mb
 init: begin setup matrix, pivot=     0 cpu clock=  3.00E-02
       establish matrix -- done,  cpu clock=  3.00E-02 peak memory=       105 mb
       re-order matrix -- done,  cpu clock=  3.00E-02 peak memory=       105 mb
 init: end setup matrix,  cpu clock=  3.00E-02 peak memory=       105 mb
 dcop: begin dcop,  cpu clock=  3.00E-02
 dcop: end dcop,  cpu clock=  3.00E-02 peak memory=       105 mb                tot_iter=      20
 output: /users/start2016/r0364010/temp_m2s/xorr.tr0
 sweep: tran tran0    begin, stop_t=  1.00E-08 #sweeps=**** cpu clock=  3.00E-02
 tran: time= 1.0000E-09 tot_iter=      14 conv_iter=       7 cpu clock= 3.00E-02
 tran: time= 2.0000E-09 tot_iter=      73 conv_iter=      27 cpu clock= 4.00E-02
 tran: time= 3.0000E-09 tot_iter=     172 conv_iter=      46 cpu clock= 4.00E-02
 tran: time= 4.0000E-09 tot_iter=     217 conv_iter=      64 cpu clock= 4.00E-02
 tran: time= 5.0000E-09 tot_iter=     344 conv_iter=      84 cpu clock= 5.00E-02
 tran: time= 6.0000E-09 tot_iter=     393 conv_iter=     103 cpu clock= 5.00E-02
 tran: time= 7.0000E-09 tot_iter=     532 conv_iter=     124 cpu clock= 6.00E-02
 tran: time= 8.0000E-09 tot_iter=     604 conv_iter=     151 cpu clock= 6.00E-02
 tran: time= 9.0271E-09 tot_iter=     718 conv_iter=     173 cpu clock= 6.00E-02
 tran: time= 1.0000E-08 tot_iter=     722 conv_iter=     175 cpu clock= 6.00E-02
 sweep: tran tran0    end,  cpu clock=  6.00E-02 peak memory=       106 mb
>info:         ***** hspice job concluded
 lic: Release hspice token(s)
